*Heading
** Nodes--------------------------------------------------------------
*Node, NSET=AllNodes
*INCLUDE, INPUT=Coords-All.inp
** Elements-----------------------------------------------------------
** User element definition, list of active dof in the first node, refer to ABAQUS's convention, "8" is pressure "11" is temperature 
*User element, type=u3, nodes=8, coordinates=3, properties=15, variables=20
1, 2, 3, 11, 8
*Element, type=u3, Elset=UserElem
*INCLUDE, INPUT=Elems-All.inp
** Dummy element overlaid on the user elements
*Element, type=C3D8, Elset=Dummy
*INCLUDE, INPUT=Elems-Dummy.inp
** Section: HomoSection
*Solid Section, elset=Dummy, material=Dummy
** SETS --------------------------------------------------------------
*INCLUDE, INPUT=Elems-Nodes-Set.inp
*Elset, elset=QuarterSection-Dummy
100337,100338,100339,100340,100341,100342,100343,100344,100345,100346,100347,100348,100349,100350,100351,100352
100353,100354,100355,100356,100357,100358,100359,100360,100361,100362,100363,100364,100365,100366,100367,100368
100369,100370,100371,100372,100373,100374,100375,100376,100377,100378,100379,100380,100381,100382,100383,100384
100385,100386,100387,100388,100389,100390,100391,100392,100393,100394,100395,100396,100397,100398,100399,100400
100401,100402,100403,100404,100405,100406,100407,100408,100409,100410,100411,100412,100413,100414,100415,100416
100417,100418,100419,100420,100421,100422,100423,100424,100425,100426,100427,100428,100429,100430,100431,100432
100433,100434,100435,100436,100437,100438,100439,100440,100441,100442,100443,100444,100445,100446,100447,100448
100449,100450,100451,100452,100453,100454,100455,100456,100457,100458,100459,100460,100461,100462,100463,100464
100465,100466,100467,100468,100469,100470,100471,100472,100473,100474,100475,100476,100477,100478,100479,100480
100481,100482,100483,100484,100485,100486,100487,100488,100489,100490,100491,100492,100493,100494,100495,100496
100497,100498,100499,100500,100501,100502,100503,100504,100505,100506,100507,100508,100509,100510,100511,100512
100513,100514,100515,100516,100517,100518,100519,100520,100521,100522,100523,100524,100525,100526,100527,100528
100529,100530,100531,100532,100533,100534,100535,100536,100537,100538,100539,100540,100541,100542,100543,100544
100545,100546,100547,100548,100549,100550,100551,100552,100553,100554,100555,100556,100557,100558,100559,100560
100561,100562,100563,100564,100565,100566,100567,100568,100569,100570,100571,100572,100573,100574,100575,100576
100577,100578,100579,100580,100581,100582,100583,100584,100585,100586,100587,100588,100589,100590,100591,100592
100593,100594,100595,100596,100597,100598,100599,100600,100601,100602,100603,100604,100605,100606,100607,100608
100609,100610,100611,100612,100613,100614,100615,100616,100617,100618,100619,100620,100621,100622,100623,100624
100625,100626,100627,100628,100629,100630,100631,100632,100633,100634,100635,100636,100637,100638,100639,100640
100641,100642,100643,100644,100645,100646,100647,100648,100649,100650,100651,100652,100653,100654,100655,100656
** ... 1285 like lines cut
*Elset, elset=Whole-Sample-Dummy, generate
 135317,  142960,      1
*Elset, elset=SampleAround-Dummy
110141,110142,110143,110144,110145,110146,110147,110148,110149,110150,110151,110152,110153,110154,110155,110156
110157,110158,110159,110160,110161,110162,110163,110164,110165,110166,110167,110168,110169,110170,110171,110172
110173,110174,110175,110176,110177,110178,110179,110180,110181,110182,110183,110184,110185,110186,110187,110188
110189,110190,110191,110192,110193,110194,110195,110196,110197,110198,110199,110200,110201,110202,110203,110204
110205,110206,110207,110208,110209,110210,110211,110212,110213,110214,110215,110216,110217,110218,110219,110220
110221,110222,110223,110224,110225,110226,110227,110228,110229,110230,110231,110232,110233,110234,110235,110236
110237,110238,110239,110240,110241,110242,110243,110244,110245,110246,110247,110248,110249,110250,110251,110252
110253,110254,110255,110256,110257,110258,110259,110260,110261,110262,110263,110264,110265,110266,110267,110268
110269,110270,110271,110272,110273,110274,110275,110276,110277,110278,110279,110280,110281,110282,110283,110284
110285,110286,110287,110288,110289,110290,110291,110292,110293,110294,110295,110296,110297,110298,110299,110300
110301,110302,110303,110304,110305,110306,110307,110308,110309,110310,110311,110312,110313,110314,110315,110316
110317,110318,110319,110320,110321,110322,110323,110324,110325,110326,110327,110328,110329,110330,110331,110332
110333,110334,110335,110336,110337,110338,110339,110340,110341,110342,110343,110344,110345,110346,110347,110348
110349,110350,110351,110352,110353,110354,110355,110356,110357,110358,110359,110360,110361,110362,110363,110364
110365,110366,110367,110368,110369,110370,110371,110372,110373,110374,110375,110376,110377,110378,110379,110380
110381,110382,110383,110384,110385,110386,110387,110388,110389,110390,110391,110392,110393,110394,110395,110396
110397,110398,110399,110400,110401,110402,110403,110404,110405,110406,110407,110408,110409,110410,110411,110412
110413,110414,110415,110416,110417,110418,110419,110420,110421,110422,110423,110424,110425,110426,110427,110428
110429,110430,110431,110432,110433,110434,110435,110436,110437,110438,110439,110440,110441,110442,110443,110444
110445,110446,110447,110448,110449,110450,110451,110452,110453,110454,110455,110456,110457,110458,110459,110460
** ... 1734 like lines cut
** MATERIALS ---------------------------------------------------------
** UEL parameters
** Em(Pa), Nu, Mr1(kA/m), Mr2(kA/m), Mr3(kA/m), Ba1(mT), Ba2(mT), Ba3(mT), 
** gFactor, MaterialFlag
*UEL Property, elset=Air
1.e-10, 0.499, 0.0, 0.0, 0.0, 0.0, 0.0, 2000.0,
1.0, 0.0
*UEL Property, elset=Whole-Sample
719520, 0.499, 0.0, 0.0, 120.0, 0.0, 0.0, 2000.0,
1.0, 1.0
** Em=719.520 kPa, Nu=0.499 --> Gm=240kPa
** DUMMY MATERIAL
*MATERIAL,NAME=Dummy
*Hyperelastic, Neo Hooke
1.e-10, 1.e10
*User output variables
20
** Constraint --------------------------------------------------------
** TODO: couple the air nodes with the solid nodes
*EQUATION, INPUT=EquationInner.inp
*EQUATION, INPUT=EquationOuter.inp
*EQUATION, INPUT=EquationMiddle.inp
*EQUATION, INPUT=EquationTop.inp
** STEP1 -------------------------------------------------------------
*STEP, name=Growth, nlgeom=YES, inc=200
*Static
** *COUPLED TEMPERATURE-DISPLACEMENT, STEADY STATE
** <init_step_size>, <end_time>, <min_step_size>, <max_step_size>
0.25, 1., 1e-05, 0.25
*CONTROLS, PARAMETERS=TIME INCREMENTATION
24,30,31,70,70
** BOUNDARY CONDITIONS -----------------------------------------------
*Boundary
ZeroUX, 1,1
ZeroUY, 2,2
ZeroUZ, 3,3
AirMiddle, 1,2
*Boundary
AllNodes, 11,11
** OUTPUT REQUESTS ---------------------------------------------------
*Output, field, freq=1
*Node Output, NSET=AllNodes
 U, COORD
*Element Output, elset=Dummy
 UVARM
*End Step
** STEP2 -------------------------------------------------------------
*STEP, name=Compress, nlgeom=YES, inc=200
*Static
** *COUPLED TEMPERATURE-DISPLACEMENT, STEADY STATE
** <init_step_size>, <end_time>, <min_step_size>, <max_step_size>
0.25, 1., 1e-05, 0.25
*CONTROLS, PARAMETERS=TIME INCREMENTATION
24,30,31,70,70
** BOUNDARY CONDITIONS -----------------------------------------------
*Boundary
ZeroUX, 1,1
ZeroUY, 2,2
ZeroUZ, 3,3
AirMiddle, 1,2
*Boundary
AllNodes, 11,11
** OUTPUT REQUESTS ---------------------------------------------------
*Output, field, freq=1
*Node Output, NSET=AllNodes
 U, COORD
*Element Output, elset=Dummy
 UVARM
*End Step
** STEP3 -------------------------------------------------------------
*STEP, name=Pull, nlgeom=YES, inc=200
*Static
** *COUPLED TEMPERATURE-DISPLACEMENT, STEADY STATE
** <init_step_size>, <end_time>, <min_step_size>, <max_step_size>
0.10, 2., 1e-05, 0.10
*CONTROLS, PARAMETERS=TIME INCREMENTATION
24,30,31,70,70
** BOUNDARY CONDITIONS -----------------------------------------------
*Boundary
ZeroUX, 1,1
ZeroUY, 2,2
ZeroUZ, 3,3
AirMiddle, 1,2
*Boundary
AllNodes, 11,11
** OUTPUT REQUESTS ---------------------------------------------------
*Output, field, freq=1
*Node Output, NSET=AllNodes
 U, COORD
*Element Output, elset=Dummy
 UVARM
*End Step