*Heading
** Job name: Buckle-PlaneStrain-WithoutAir Model name: SubFilm-w60-h345-f3-PlaneStrain-WitouthAir
** Generated by: Abaqus/CAE 2020
*Preprint, echo=NO, model=NO, history=NO, contact=NO
**
** PARTS
**
*Part, name=Plate
*Node
      1,          60.,         22.5,           0.
      2,          30.,         22.5,           0.
      3,          30.,         22.5,          0.5
      4,          60.,         22.5,          0.5
      5,          30.,           0.,           0.
      6,          30.,           0.,          0.5
      7,          60.,           0.,          0.5
      8,          60.,           0.,           0.
      9,          60.,         34.5,           0.
     10,          30.,         34.5,           0.
     11,          30.,         34.5,          0.5
     12,          60.,         34.5,          0.5
     13,           0.,         22.5,          0.5
     14,           0.,         34.5,          0.5
     15,           0.,         34.5,           0.
     16,           0.,         22.5,           0.
     17,          30.,         37.5,          0.5
     18,          30.,         37.5,           0.
     19,           0.,         37.5,           0.
     20,           0.,         37.5,          0.5
** ... 8208 like lines cut
*Element, type=C3D8R
  1,  288, 1149, 1975,  261,    1,   25,  142,    4
  2, 1149, 1150, 1976, 1975,   25,   26,  141,  142
  3, 1150, 1151, 1977, 1976,   26,   27,  140,  141
  4, 1151, 1152, 1978, 1977,   27,   28,  139,  140
  5, 1152, 1153, 1979, 1978,   28,   29,  138,  139
  6, 1153, 1154, 1980, 1979,   29,   30,  137,  138
  7, 1154, 1155, 1981, 1980,   30,   31,  136,  137
  8, 1155, 1156, 1982, 1981,   31,   32,  135,  136
  9, 1156, 1157, 1983, 1982,   32,   33,  134,  135
 10, 1157, 1158, 1984, 1983,   33,   34,  133,  134
 11, 1158, 1159, 1985, 1984,   34,   35,  132,  133
 12, 1159, 1160, 1986, 1985,   35,   36,  131,  132
 13, 1160, 1161, 1987, 1986,   36,   37,  130,  131
 14, 1161, 1162, 1988, 1987,   37,   38,  129,  130
 15, 1162, 1163, 1989, 1988,   38,   39,  128,  129
 16, 1163, 1164, 1990, 1989,   39,   40,  127,  128
 17, 1164, 1165, 1991, 1990,   40,   41,  126,  127
 18, 1165, 1166, 1992, 1991,   41,   42,  125,  126
 19, 1166, 1167, 1993, 1992,   42,   43,  124,  125
 20, 1167, 1168, 1994, 1993,   43,   44,  123,  124
** ... 3940 like lines cut
*Nset, nset=Film
    9,   10,   11,   12,   14,   15,   17,   18,   19,   20,   21,   22,  317,  318,  319,  320
  321,  322,  323,  324,  325,  326,  327,  328,  329,  330,  331,  332,  333,  334,  335,  336
  337,  338,  339,  340,  341,  342,  343,  344,  345,  346,  347,  348,  349,  350,  351,  352
  353,  354,  355,  356,  357,  358,  359,  360,  361,  362,  363,  364,  365,  366,  367,  368
  369,  370,  371,  372,  373,  374,  375,  376,  377,  378,  379,  380,  381,  382,  383,  384
  385,  386,  387,  388,  389,  390,  391,  392,  393,  394,  395,  396,  397,  398,  399,  400
  401,  402,  403,  404,  405,  406,  407,  408,  409,  410,  411,  412,  413,  414,  415,  416
  417,  418,  419,  420,  421,  422,  423,  424,  425,  426,  427,  428,  429,  430,  431,  432
  433,  434,  538,  539,  540,  541,  542,  543,  544,  545,  546,  547,  548,  549,  550,  551
  552,  553,  554,  555,  556,  557,  558,  559,  560,  561,  562,  563,  564,  565,  566,  567
  568,  569,  570,  571,  572,  573,  574,  575,  576,  577,  578,  579,  580,  581,  582,  583
  584,  585,  586,  587,  588,  589,  590,  591,  592,  593,  594,  595,  596,  667,  668,  669
  670,  671,  672,  673,  674,  675,  676,  677,  678,  679,  680,  681,  682,  683,  684,  685
  686,  687,  688,  689,  690,  691,  692,  693,  694,  695,  696,  697,  698,  699,  700,  701
  702,  703,  704,  705,  706,  707,  708,  709,  710,  711,  712,  713,  714,  715,  716,  717
  718,  719,  720,  721,  722,  723,  724,  725,  737,  738,  739,  740,  741,  742,  743,  744
  745,  746,  747,  748,  749,  750,  751,  752,  753,  754,  755,  756,  757,  758,  759,  760
  761,  762,  763,  764,  765,  766,  767,  768,  769,  770,  771,  772,  773,  774,  775,  776
  777,  778,  779,  780,  781,  782,  783,  784,  785,  786,  787,  788,  789,  790,  791,  792
  793,  794,  795,  796,  797,  798,  799,  800,  801,  802,  803,  804,  805,  806,  807,  808
** ... 86 like lines cut
*Elset, elset=Film, generate
 2341,  3060,     1
*Nset, nset=FilmLeftPart
   10,   11,   14,   15,   17,   18,   19,   20,  538,  539,  540,  541,  542,  543,  544,  545
  546,  547,  548,  549,  550,  551,  552,  553,  554,  555,  556,  557,  558,  559,  560,  561
  562,  563,  564,  565,  566,  567,  568,  569,  570,  571,  572,  573,  574,  575,  576,  577
  578,  579,  580,  581,  582,  583,  584,  585,  586,  587,  588,  589,  590,  591,  592,  593
  594,  595,  596,  667,  668,  669,  670,  671,  672,  673,  674,  675,  676,  677,  678,  679
  680,  681,  682,  683,  684,  685,  686,  687,  688,  689,  690,  691,  692,  693,  694,  695
  696,  697,  698,  699,  700,  701,  702,  703,  704,  705,  706,  707,  708,  709,  710,  711
  712,  713,  714,  715,  716,  717,  718,  719,  720,  721,  722,  723,  724,  725,  737,  738
  739,  740,  741,  742,  743,  744,  745,  746,  747,  748,  749,  750,  751,  752,  753,  754
  755,  756,  757,  758,  759,  760,  761,  762,  763,  764,  765,  766,  767,  768,  769,  770
  771,  772,  773,  774,  775,  776,  777,  778,  779,  780,  781,  782,  783,  784,  785,  786
  787,  788,  789,  790,  791,  792,  793,  794,  795,  796,  797,  798,  799,  800,  801,  802
  803,  804,  805,  806,  807,  808,  809,  810,  811,  812,  813,  814,  815,  816,  817,  818
  819,  820,  821,  822,  823,  824,  825,  826,  827,  828,  829,  830,  831,  832,  833,  834
  835,  836,  837,  838,  839,  840,  841,  842,  843,  844,  845,  846,  847,  848,  849,  850
  851,  852,  853,  854,  855,  856,  857,  858,  859,  860,  861,  862,  863,  864,  865,  866
  867,  868,  869,  870,  871,  872,  873,  874, 5397, 5398, 5399, 5400, 5401, 5402, 5403, 5404
 5405, 5406, 5407, 5408, 5409, 5410, 5411, 5412, 5413, 5414, 5415, 5416, 5417, 5418, 5419, 5420
 5421, 5422, 5423, 5424, 5425, 5426, 5427, 5428, 5429, 5430, 5431, 5432, 5433, 5434, 5435, 5436
 5437, 5438, 5439, 5440, 5441, 5442, 5443, 5444, 5445, 5446, 5447, 5448, 5449, 5450, 5451, 5452
** ... 34 like lines cut
*Elset, elset=FilmLeftPart, generate
 2341,  2700,     1
*Nset, nset=FilmLeftRight
   9,  12,  14,  15,  19,  20,  21,  22, 747, 748, 749, 750, 751, 752, 753, 754
 755, 756, 875, 876, 877, 878, 879, 880, 881, 882, 883, 884
*Elset, elset=FilmLeftRight
 2695, 2696, 2697, 2698, 2699, 2700, 3055, 3056, 3057, 3058, 3059, 3060
*Nset, nset=FilmRightPart
    9,   10,   11,   12,   17,   18,   21,   22,  317,  318,  319,  320,  321,  322,  323,  324
  325,  326,  327,  328,  329,  330,  331,  332,  333,  334,  335,  336,  337,  338,  339,  340
  341,  342,  343,  344,  345,  346,  347,  348,  349,  350,  351,  352,  353,  354,  355,  356
  357,  358,  359,  360,  361,  362,  363,  364,  365,  366,  367,  368,  369,  370,  371,  372
  373,  374,  375,  376,  377,  378,  379,  380,  381,  382,  383,  384,  385,  386,  387,  388
  389,  390,  391,  392,  393,  394,  395,  396,  397,  398,  399,  400,  401,  402,  403,  404
  405,  406,  407,  408,  409,  410,  411,  412,  413,  414,  415,  416,  417,  418,  419,  420
  421,  422,  423,  424,  425,  426,  427,  428,  429,  430,  431,  432,  433,  434,  737,  738
  739,  740,  741,  742,  743,  744,  745,  746,  875,  876,  877,  878,  879,  880,  881,  882
  883,  884,  885,  886,  887,  888,  889,  890,  891,  892,  893,  894,  895,  896,  897,  898
  899,  900,  901,  902,  903,  904,  905,  906,  907,  908,  909,  910,  911,  912,  913,  914
  915,  916,  917,  918,  919,  920,  921,  922,  923,  924,  925,  926,  927,  928,  929,  930
  931,  932,  933,  934,  935,  936,  937,  938,  939,  940,  941,  942,  943,  944,  945,  946
  947,  948,  949,  950,  951,  952,  953,  954,  955,  956,  957,  958,  959,  960,  961,  962
  963,  964,  965,  966,  967,  968,  969,  970,  971,  972,  973,  974,  975,  976,  977,  978
  979,  980,  981,  982,  983,  984,  985,  986,  987,  988,  989,  990,  991,  992,  993,  994
  995,  996,  997,  998,  999, 1000, 1001, 1002, 5987, 5988, 5989, 5990, 5991, 5992, 5993, 5994
 5995, 5996, 5997, 5998, 5999, 6000, 6001, 6002, 6003, 6004, 6005, 6006, 6007, 6008, 6009, 6010
 6011, 6012, 6013, 6014, 6015, 6016, 6017, 6018, 6019, 6020, 6021, 6022, 6023, 6024, 6025, 6026
 6027, 6028, 6029, 6030, 6031, 6032, 6033, 6034, 6035, 6036, 6037, 6038, 6039, 6040, 6041, 6042
** ... 34 like lines cut
*Elset, elset=FilmRightPart, generate
 2701,  3060,     1
*Nset, nset=SampleBot
    5,    6,    7,    8,   23,   24,  143,  144,  145,  146,  147,  148,  149,  150,  151,  152
  153,  154,  155,  156,  157,  158,  159,  160,  161,  162,  163,  164,  165,  166,  167,  168
  169,  170,  171,  172,  173,  174,  175,  176,  177,  178,  179,  180,  181,  182,  183,  184
  185,  186,  187,  188,  189,  190,  191,  192,  193,  194,  195,  196,  197,  198,  199,  200
  201,  202,  203,  204,  205,  206,  207,  208,  209,  210,  211,  212,  213,  214,  215,  216
  217,  218,  219,  220,  221,  222,  223,  224,  225,  226,  227,  228,  229,  230,  231,  232
  233,  234,  235,  236,  237,  238,  239,  240,  241,  242,  243,  244,  245,  246,  247,  248
  249,  250,  251,  252,  253,  254,  255,  256,  257,  258,  259,  260, 1017, 1018, 1019, 1020
 1021, 1022, 1023, 1024, 1025, 1026, 1027, 1028, 1029, 1030, 1031, 1032, 1033, 1034, 1035, 1036
 1037, 1038, 1039, 1040, 1041, 1042, 1043, 1044, 1045, 1046, 1047, 1048, 1049, 1050, 1051, 1052
 1053, 1054, 1055, 1056, 1057, 1058, 1059, 1060, 1061, 1062, 1063, 1064, 1065, 1066, 1067, 1068
 1069, 1070, 1071, 1072, 1073, 1074, 1075, 1090, 1091, 1092, 1093, 1094, 1095, 1096, 1097, 1098
 1099, 1100, 1101, 1102, 1103, 1104, 1105, 1106, 1107, 1108, 1109, 1110, 1111, 1112, 1113, 1114
 1115, 1116, 1117, 1118, 1119, 1120, 1121, 1122, 1123, 1124, 1125, 1126, 1127, 1128, 1129, 1130
 1131, 1132, 1133, 1134, 1135, 1136, 1137, 1138, 1139, 1140, 1141, 1142, 1143, 1144, 1145, 1146
 1147, 1148
*Elset, elset=SampleBot
  841,  842,  843,  844,  845,  846,  847,  848,  849,  850,  851,  852,  853,  854,  855,  856
  857,  858,  859,  860,  861,  862,  863,  864,  865,  866,  867,  868,  869,  870,  871,  872
  873,  874,  875,  876,  877,  878,  879,  880,  881,  882,  883,  884,  885,  886,  887,  888
  889,  890,  891,  892,  893,  894,  895,  896,  897,  898,  899,  900, 3901, 3902, 3903, 3904
 3905, 3906, 3907, 3908, 3909, 3910, 3911, 3912, 3913, 3914, 3915, 3916, 3917, 3918, 3919, 3920
 3921, 3922, 3923, 3924, 3925, 3926, 3927, 3928, 3929, 3930, 3931, 3932, 3933, 3934, 3935, 3936
 3937, 3938, 3939, 3940, 3941, 3942, 3943, 3944, 3945, 3946, 3947, 3948, 3949, 3950, 3951, 3952
 3953, 3954, 3955, 3956, 3957, 3958, 3959, 3960
*Nset, nset=SampleLeftRight
    1,    4,    7,    8,    9,   12,   13,   14,   15,   16,   19,   20,   21,   22,   23,   24
  261,  262,  263,  264,  265,  266,  267,  268,  269,  270,  271,  272,  273,  274,  275,  276
  277,  278,  279,  280,  281,  282,  283,  284,  285,  286,  287,  288,  435,  436,  437,  438
  439,  440,  441,  442,  443,  444,  445,  446,  447,  448,  449,  450,  451,  452,  453,  454
  455,  456,  597,  598,  599,  600,  601,  602,  603,  604,  605,  606,  607,  726,  727,  728
  729,  730,  731,  732,  733,  734,  735,  736,  747,  748,  749,  750,  751,  752,  753,  754
  755,  756,  875,  876,  877,  878,  879,  880,  881,  882,  883,  884, 1003, 1004, 1005, 1006
 1007, 1008, 1009, 1010, 1011, 1012, 1013, 1014, 1015, 1016, 1076, 1077, 1078, 1079, 1080, 1081
 1082, 1083, 1084, 1085, 1086, 1087, 1088, 1089
*Elset, elset=SampleLeftRight
    1,   61,  121,  181,  241,  301,  361,  421,  481,  541,  601,  661,  721,  781,  841,  901
  961, 1021, 1081, 1141, 1201, 1261, 1321, 1381, 1441, 1501, 1561, 1621, 1681, 1741, 1801, 1861
 1921, 1981, 2041, 2101, 2161, 2221, 2281, 2695, 2696, 2697, 2698, 2699, 2700, 3055, 3056, 3057
 3058, 3059, 3060, 3120, 3180, 3240, 3300, 3360, 3420, 3480, 3540, 3600, 3660, 3720, 3780, 3840
 3900, 3960
*Nset, nset=SampleMiddle
   2,   3,   5,   6,  10,  11,  17,  18, 289, 290, 291, 292, 293, 294, 295, 296
 297, 298, 299, 300, 301, 302, 303, 304, 305, 306, 307, 308, 309, 310, 311, 312
 313, 314, 315, 316, 457, 458, 459, 460, 461, 462, 463, 464, 465, 466, 467, 468
 469, 470, 471, 472, 473, 474, 475, 476, 477, 478, 737, 738, 739, 740, 741, 742
 743, 744, 745, 746
*Elset, elset=SampleMiddle
   60,  120,  180,  240,  300,  360,  420,  480,  540,  600,  660,  720,  780,  840,  900,  960
 1020, 1080, 1140, 1200, 1260, 1320, 1380, 1440, 1500, 1560, 1620, 1680, 1740, 1800, 1860, 1920
 1980, 2040, 2100, 2160, 2220, 2280, 2340, 2341, 2342, 2343, 2344, 2345, 2346, 2701, 2702, 2703
 2704, 2705, 2706, 3061, 3121, 3181, 3241, 3301, 3361, 3421, 3481, 3541, 3601, 3661, 3721, 3781
 3841, 3901
*Nset, nset=SampleTop
   17,   18,   19,   20,   21,   22,  757,  758,  759,  760,  761,  762,  763,  764,  765,  766
  767,  768,  769,  770,  771,  772,  773,  774,  775,  776,  777,  778,  779,  780,  781,  782
  783,  784,  785,  786,  787,  788,  789,  790,  791,  792,  793,  794,  795,  796,  797,  798
  799,  800,  801,  802,  803,  804,  805,  806,  807,  808,  809,  810,  811,  812,  813,  814
  815,  816,  817,  818,  819,  820,  821,  822,  823,  824,  825,  826,  827,  828,  829,  830
  831,  832,  833,  834,  835,  836,  837,  838,  839,  840,  841,  842,  843,  844,  845,  846
  847,  848,  849,  850,  851,  852,  853,  854,  855,  856,  857,  858,  859,  860,  861,  862
  863,  864,  865,  866,  867,  868,  869,  870,  871,  872,  873,  874,  885,  886,  887,  888
  889,  890,  891,  892,  893,  894,  895,  896,  897,  898,  899,  900,  901,  902,  903,  904
  905,  906,  907,  908,  909,  910,  911,  912,  913,  914,  915,  916,  917,  918,  919,  920
  921,  922,  923,  924,  925,  926,  927,  928,  929,  930,  931,  932,  933,  934,  935,  936
  937,  938,  939,  940,  941,  942,  943,  944,  945,  946,  947,  948,  949,  950,  951,  952
  953,  954,  955,  956,  957,  958,  959,  960,  961,  962,  963,  964,  965,  966,  967,  968
  969,  970,  971,  972,  973,  974,  975,  976,  977,  978,  979,  980,  981,  982,  983,  984
  985,  986,  987,  988,  989,  990,  991,  992,  993,  994,  995,  996,  997,  998,  999, 1000
 1001, 1002
*Elset, elset=SampleTop, generate
 2341,  3055,     6
*Nset, nset=Substrate
    1,    2,    3,    4,    5,    6,    7,    8,    9,   10,   11,   12,   13,   14,   15,   16
   23,   24,   25,   26,   27,   28,   29,   30,   31,   32,   33,   34,   35,   36,   37,   38
   39,   40,   41,   42,   43,   44,   45,   46,   47,   48,   49,   50,   51,   52,   53,   54
   55,   56,   57,   58,   59,   60,   61,   62,   63,   64,   65,   66,   67,   68,   69,   70
   71,   72,   73,   74,   75,   76,   77,   78,   79,   80,   81,   82,   83,   84,   85,   86
   87,   88,   89,   90,   91,   92,   93,   94,   95,   96,   97,   98,   99,  100,  101,  102
  103,  104,  105,  106,  107,  108,  109,  110,  111,  112,  113,  114,  115,  116,  117,  118
  119,  120,  121,  122,  123,  124,  125,  126,  127,  128,  129,  130,  131,  132,  133,  134
  135,  136,  137,  138,  139,  140,  141,  142,  143,  144,  145,  146,  147,  148,  149,  150
  151,  152,  153,  154,  155,  156,  157,  158,  159,  160,  161,  162,  163,  164,  165,  166
  167,  168,  169,  170,  171,  172,  173,  174,  175,  176,  177,  178,  179,  180,  181,  182
  183,  184,  185,  186,  187,  188,  189,  190,  191,  192,  193,  194,  195,  196,  197,  198
  199,  200,  201,  202,  203,  204,  205,  206,  207,  208,  209,  210,  211,  212,  213,  214
  215,  216,  217,  218,  219,  220,  221,  222,  223,  224,  225,  226,  227,  228,  229,  230
  231,  232,  233,  234,  235,  236,  237,  238,  239,  240,  241,  242,  243,  244,  245,  246
  247,  248,  249,  250,  251,  252,  253,  254,  255,  256,  257,  258,  259,  260,  261,  262
  263,  264,  265,  266,  267,  268,  269,  270,  271,  272,  273,  274,  275,  276,  277,  278
  279,  280,  281,  282,  283,  284,  285,  286,  287,  288,  289,  290,  291,  292,  293,  294
  295,  296,  297,  298,  299,  300,  301,  302,  303,  304,  305,  306,  307,  308,  309,  310
  311,  312,  313,  314,  315,  316,  317,  318,  319,  320,  321,  322,  323,  324,  325,  326
** ... 404 like lines cut
*Elset, elset=Substrate
    1,    2,    3,    4,    5,    6,    7,    8,    9,   10,   11,   12,   13,   14,   15,   16
   17,   18,   19,   20,   21,   22,   23,   24,   25,   26,   27,   28,   29,   30,   31,   32
   33,   34,   35,   36,   37,   38,   39,   40,   41,   42,   43,   44,   45,   46,   47,   48
   49,   50,   51,   52,   53,   54,   55,   56,   57,   58,   59,   60,   61,   62,   63,   64
   65,   66,   67,   68,   69,   70,   71,   72,   73,   74,   75,   76,   77,   78,   79,   80
   81,   82,   83,   84,   85,   86,   87,   88,   89,   90,   91,   92,   93,   94,   95,   96
   97,   98,   99,  100,  101,  102,  103,  104,  105,  106,  107,  108,  109,  110,  111,  112
  113,  114,  115,  116,  117,  118,  119,  120,  121,  122,  123,  124,  125,  126,  127,  128
  129,  130,  131,  132,  133,  134,  135,  136,  137,  138,  139,  140,  141,  142,  143,  144
  145,  146,  147,  148,  149,  150,  151,  152,  153,  154,  155,  156,  157,  158,  159,  160
  161,  162,  163,  164,  165,  166,  167,  168,  169,  170,  171,  172,  173,  174,  175,  176
  177,  178,  179,  180,  181,  182,  183,  184,  185,  186,  187,  188,  189,  190,  191,  192
  193,  194,  195,  196,  197,  198,  199,  200,  201,  202,  203,  204,  205,  206,  207,  208
  209,  210,  211,  212,  213,  214,  215,  216,  217,  218,  219,  220,  221,  222,  223,  224
  225,  226,  227,  228,  229,  230,  231,  232,  233,  234,  235,  236,  237,  238,  239,  240
  241,  242,  243,  244,  245,  246,  247,  248,  249,  250,  251,  252,  253,  254,  255,  256
  257,  258,  259,  260,  261,  262,  263,  264,  265,  266,  267,  268,  269,  270,  271,  272
  273,  274,  275,  276,  277,  278,  279,  280,  281,  282,  283,  284,  285,  286,  287,  288
  289,  290,  291,  292,  293,  294,  295,  296,  297,  298,  299,  300,  301,  302,  303,  304
  305,  306,  307,  308,  309,  310,  311,  312,  313,  314,  315,  316,  317,  318,  319,  320
** ... 183 like lines cut
*Nset, nset=SubstrateLeftRight
    1,    4,    7,    8,    9,   12,   13,   14,   15,   16,   23,   24,  261,  262,  263,  264
  265,  266,  267,  268,  269,  270,  271,  272,  273,  274,  275,  276,  277,  278,  279,  280
  281,  282,  283,  284,  285,  286,  287,  288,  435,  436,  437,  438,  439,  440,  441,  442
  443,  444,  445,  446,  447,  448,  449,  450,  451,  452,  453,  454,  455,  456,  597,  598
  599,  600,  601,  602,  603,  604,  605,  606,  607,  726,  727,  728,  729,  730,  731,  732
  733,  734,  735,  736, 1003, 1004, 1005, 1006, 1007, 1008, 1009, 1010, 1011, 1012, 1013, 1014
 1015, 1016, 1076, 1077, 1078, 1079, 1080, 1081, 1082, 1083, 1084, 1085, 1086, 1087, 1088, 1089
*Elset, elset=SubstrateLeftRight
    1,   61,  121,  181,  241,  301,  361,  421,  481,  541,  601,  661,  721,  781,  841,  901
  961, 1021, 1081, 1141, 1201, 1261, 1321, 1381, 1441, 1501, 1561, 1621, 1681, 1741, 1801, 1861
 1921, 1981, 2041, 2101, 2161, 2221, 2281, 3120, 3180, 3240, 3300, 3360, 3420, 3480, 3540, 3600
 3660, 3720, 3780, 3840, 3900, 3960
*Nset, nset=WholeSample, generate
    1,  8228,     1
*Elset, elset=WholeSample, generate
    1,  3960,     1
** Section: Homo-Substrate
*Solid Section, elset=Substrate, material=neoHookean-Substrate
,
** Section: Homo-Film
*Solid Section, elset=Film, material=neoHookean-Film
,
*End Part
**  
**
** ASSEMBLY
**
*Assembly, name=Assembly
**  
*Instance, name=Plate-1, part=Plate
*End Instance
**  
*End Assembly
** 
** MATERIALS
** 
*Material, name=neoHookean-Air
*Expansion
 0.1,
*Hyperelastic, neo hooke
 0.1,10.
*Material, name=neoHookean-Film
*Expansion
 0.1,
*Hyperelastic, neo hooke
 4147.67, 2.49413e-05
*Material, name=neoHookean-Substrate
*Expansion
 0.1,
*Hyperelastic, neo hooke
 41.4767, 0.00249413
** ----------------------------------------------------------------
** 
** STEP: Buckle
** 
*Step, name=Buckle, nlgeom=NO, perturbation
*Buckle
10, , 30, 30
** 
** BOUNDARY CONDITIONS
** 
** Name: Ux Type: Displacement/Rotation
*Boundary, op=NEW, load case=1
Plate-1.SampleLeftRight, 1, 1
*Boundary, op=NEW, load case=2
Plate-1.SampleLeftRight, 1, 1
** Name: Uy Type: Displacement/Rotation
*Boundary, op=NEW, load case=1
Plate-1.SampleBot, 2, 2
*Boundary, op=NEW, load case=2
Plate-1.SampleBot, 2, 2
** Name: Uz Type: Displacement/Rotation
*Boundary, op=NEW, load case=1
Plate-1.WholeSample, 3, 3
*Boundary, op=NEW, load case=2
Plate-1.WholeSample, 3, 3
** 
** PREDEFINED FIELDS
** 
** Name: Temp   Type: Temperature
*Temperature
Plate-1.WholeSample, 1.
** 
** OUTPUT REQUESTS
** 
*Restart, write, frequency=0
** 
** FIELD OUTPUT: F-Output-1
** 
*Output, field, variable=PRESELECT
*NODE FILE, GLOBAL=YES
U,
*End Step
